<?xml version="1.0" encoding="UTF-8"?>

<!-- generated on 2023-02-17 11:15:27 by Eclipse SUMO netedit Version 1.15.0
<configuration xmlns:xsi="http://www.w3.org/2001/XMLSchema-instance" xsi:noNamespaceSchemaLocation="http://sumo.dlr.de/xsd/netconvertConfiguration.xsd">

    <output>
        <output-file value="/home/gossq/python/scenic-sumo-min/map/3way.net.xml"/>
    </output>

    <processing>
        <offset.disable-normalization value="true"/>
    </processing>

    <junctions>
        <no-turnarounds value="true"/>
    </junctions>

</configuration>
-->

<net version="1.9" junctionCornerDetail="5" limitTurnSpeed="5.50" xmlns:xsi="http://www.w3.org/2001/XMLSchema-instance" xsi:noNamespaceSchemaLocation="http://sumo.dlr.de/xsd/net_file.xsd">

    <location netOffset="0.00,0.00" convBoundary="-110.40,0.00,110.40,110.40" origBoundary="10000000000.00,10000000000.00,-10000000000.00,-10000000000.00" projParameter="!"/>

    <edge id=":J8_0" function="internal">
        <lane id=":J8_0_0" index="0" speed="28.00" length="20.80" shape="10.40,115.20 -10.40,115.20"/>
        <lane id=":J8_0_1" index="1" speed="28.00" length="20.80" shape="10.40,112.00 -10.40,112.00"/>
    </edge>
    <edge id=":J8_2" function="internal">
        <lane id=":J8_2_0" index="0" speed="9.26" length="5.01" shape="10.40,112.00 5.44,111.29"/>
    </edge>
    <edge id=":J8_8" function="internal">
        <lane id=":J8_8_0" index="0" speed="9.26" length="14.34" shape="5.44,111.29 5.15,111.25 1.40,109.00 -0.85,105.25 -1.60,100.00"/>
    </edge>
    <edge id=":J8_3" function="internal">
        <lane id=":J8_3_0" index="0" speed="6.51" length="9.03" shape="4.80,100.00 5.15,102.45 6.20,104.20 7.95,105.25 10.40,105.60"/>
    </edge>
    <edge id=":J8_4" function="internal">
        <lane id=":J8_4_0" index="0" speed="9.26" length="19.35" shape="1.60,100.00 0.85,105.25 -1.40,109.00 -5.15,111.25 -10.40,112.00"/>
    </edge>
    <edge id=":J8_5" function="internal">
        <lane id=":J8_5_0" index="0" speed="6.51" length="9.03" shape="-10.40,105.60 -7.95,105.25 -6.20,104.20 -5.15,102.45 -4.80,100.00"/>
    </edge>
    <edge id=":J8_6" function="internal">
        <lane id=":J8_6_0" index="0" speed="28.00" length="20.80" shape="-10.40,105.60 10.40,105.60"/>
        <lane id=":J8_6_1" index="1" speed="28.00" length="20.80" shape="-10.40,108.80 10.40,108.80"/>
    </edge>

    <edge id="-E6" from="J8" to="J7" priority="-1">
        <lane id="-E6_0" index="0" speed="28.00" length="100.00" shape="-4.80,100.00 -4.80,0.00"/>
        <lane id="-E6_1" index="1" speed="28.00" length="100.00" shape="-1.60,100.00 -1.60,0.00"/>
    </edge>
    <edge id="-E7" from="J9" to="J8" priority="-1">
        <lane id="-E7_0" index="0" speed="28.00" length="100.00" shape="110.40,115.20 10.40,115.20"/>
        <lane id="-E7_1" index="1" speed="28.00" length="100.00" shape="110.40,112.00 10.40,112.00"/>
    </edge>
    <edge id="-E8" from="J10" to="J8" priority="-1">
        <lane id="-E8_0" index="0" speed="28.00" length="100.00" shape="-110.40,105.60 -10.40,105.60"/>
        <lane id="-E8_1" index="1" speed="28.00" length="100.00" shape="-110.40,108.80 -10.40,108.80"/>
    </edge>
    <edge id="E6" from="J7" to="J8" priority="-1">
        <lane id="E6_0" index="0" speed="28.00" length="100.00" shape="4.80,0.00 4.80,100.00"/>
        <lane id="E6_1" index="1" speed="28.00" length="100.00" shape="1.60,0.00 1.60,100.00"/>
    </edge>
    <edge id="E7" from="J8" to="J9" priority="-1">
        <lane id="E7_0" index="0" speed="28.00" length="100.00" shape="10.40,105.60 110.40,105.60"/>
        <lane id="E7_1" index="1" speed="28.00" length="100.00" shape="10.40,108.80 110.40,108.80"/>
    </edge>
    <edge id="E8" from="J8" to="J10" priority="-1">
        <lane id="E8_0" index="0" speed="28.00" length="100.00" shape="-10.40,115.20 -110.40,115.20"/>
        <lane id="E8_1" index="1" speed="28.00" length="100.00" shape="-10.40,112.00 -110.40,112.00"/>
    </edge>

    <junction id="J10" type="dead_end" x="-110.40" y="110.40" incLanes="E8_0 E8_1" intLanes="" shape="-110.40,110.40 -110.40,116.80 -110.40,110.40"/>
    <junction id="J7" type="dead_end" x="0.00" y="0.00" incLanes="-E6_0 -E6_1" intLanes="" shape="0.00,0.00 -6.40,0.00 0.00,0.00"/>
    <junction id="J8" type="priority" x="0.00" y="110.40" incLanes="-E7_0 -E7_1 E6_0 E6_1 -E8_0 -E8_1" intLanes=":J8_0_0 :J8_0_1 :J8_8_0 :J8_3_0 :J8_4_0 :J8_5_0 :J8_6_0 :J8_6_1" shape="10.40,116.80 10.40,104.00 8.18,103.56 7.40,103.00 6.84,102.22 6.51,101.22 6.40,100.00 -6.40,100.00 -6.84,102.22 -7.40,103.00 -8.18,103.56 -9.18,103.89 -10.40,104.00 -10.40,116.80">
        <request index="0" response="00000000" foes="00010000" cont="0"/>
        <request index="1" response="00000000" foes="00010000" cont="0"/>
        <request index="2" response="11000000" foes="11010000" cont="1"/>
        <request index="3" response="11000000" foes="11000000" cont="0"/>
        <request index="4" response="11000111" foes="11000111" cont="0"/>
        <request index="5" response="00000000" foes="00000000" cont="0"/>
        <request index="6" response="00000000" foes="00011100" cont="0"/>
        <request index="7" response="00000000" foes="00011100" cont="0"/>
    </junction>
    <junction id="J9" type="dead_end" x="110.40" y="110.40" incLanes="E7_0 E7_1" intLanes="" shape="110.40,110.40 110.40,104.00 110.40,110.40"/>

    <junction id=":J8_8_0" type="internal" x="5.44" y="111.29" incLanes=":J8_2_0 -E8_0 -E8_1" intLanes=":J8_4_0 :J8_6_0 :J8_6_1"/>

    <connection from="-E7" to="E8" fromLane="0" toLane="0" via=":J8_0_0" dir="s" state="M"/>
    <connection from="-E7" to="E8" fromLane="1" toLane="1" via=":J8_0_1" dir="s" state="M"/>
    <connection from="-E7" to="-E6" fromLane="1" toLane="1" via=":J8_2_0" dir="l" state="m"/>
    <connection from="-E8" to="-E6" fromLane="0" toLane="0" via=":J8_5_0" dir="r" state="M"/>
    <connection from="-E8" to="E7" fromLane="0" toLane="0" via=":J8_6_0" dir="s" state="M"/>
    <connection from="-E8" to="E7" fromLane="1" toLane="1" via=":J8_6_1" dir="s" state="M"/>
    <connection from="E6" to="E7" fromLane="0" toLane="0" via=":J8_3_0" dir="r" state="m"/>
    <connection from="E6" to="E8" fromLane="1" toLane="1" via=":J8_4_0" dir="l" state="m"/>

    <connection from=":J8_0" to="E8" fromLane="0" toLane="0" dir="s" state="M"/>
    <connection from=":J8_0" to="E8" fromLane="1" toLane="1" dir="s" state="M"/>
    <connection from=":J8_2" to="-E6" fromLane="0" toLane="1" via=":J8_8_0" dir="l" state="m"/>
    <connection from=":J8_8" to="-E6" fromLane="0" toLane="1" dir="l" state="M"/>
    <connection from=":J8_3" to="E7" fromLane="0" toLane="0" dir="r" state="M"/>
    <connection from=":J8_4" to="E8" fromLane="0" toLane="1" dir="l" state="M"/>
    <connection from=":J8_5" to="-E6" fromLane="0" toLane="0" dir="r" state="M"/>
    <connection from=":J8_6" to="E7" fromLane="0" toLane="0" dir="s" state="M"/>
    <connection from=":J8_6" to="E7" fromLane="1" toLane="1" dir="s" state="M"/>

</net>
