<?xml version="1.0" encoding="UTF-8"?>

<!-- generated on 2023-03-02 19:27:01 by Eclipse SUMO netedit Version 1.15.0
<configuration xmlns:xsi="http://www.w3.org/2001/XMLSchema-instance" xsi:noNamespaceSchemaLocation="http://sumo.dlr.de/xsd/netconvertConfiguration.xsd">

    <input>
        <sumo-net-file value="C:\Users\ilkek\Desktop\scenic-sumo-min\map\3way_edit.net.xml"/>
    </input>

    <output>
        <output-file value="C:\Users\ilkek\Desktop\scenic-sumo-min\map\3way_edit2.net.xml"/>
    </output>

    <processing>
        <geometry.min-radius.fix.railways value="false"/>
        <geometry.max-grade.fix value="false"/>
        <offset.disable-normalization value="true"/>
        <lefthand value="0"/>
    </processing>

    <junctions>
        <no-internal-links value="false"/>
        <no-turnarounds value="true"/>
        <junctions.corner-detail value="5"/>
        <junctions.limit-turn-speed value="5.50"/>
        <rectangular-lane-cut value="0"/>
    </junctions>

    <pedestrian>
        <walkingareas value="1"/>
    </pedestrian>

</configuration>
-->

<net version="1.9" junctionCornerDetail="5" walkingareas="true" limitTurnSpeed="5.50" xmlns:xsi="http://www.w3.org/2001/XMLSchema-instance" xsi:noNamespaceSchemaLocation="http://sumo.dlr.de/xsd/net_file.xsd">

    <location netOffset="0.00,0.00" convBoundary="-110.40,0.00,110.40,110.40" origBoundary="-10000000000.00,-10000000000.00,10000000000.00,10000000000.00" projParameter="!"/>

    <edge id=":J10_w0" function="walkingarea">
        <lane id=":J10_w0_0" index="0" allow="pedestrian" speed="1.00" length="14.80" width="2.00" shape="-110.40,104.00 -110.40,102.00 -110.40,118.80 -110.40,116.80"/>
    </edge>
    <edge id=":J7_w0" function="walkingarea">
        <lane id=":J7_w0_0" index="0" allow="pedestrian" speed="1.00" length="14.80" width="2.00" shape="6.40,0.00 8.40,0.00 -8.40,0.00 -6.40,0.00"/>
    </edge>
    <edge id=":J8_0" function="internal">
        <lane id=":J8_0_0" index="0" disallow="pedestrian" speed="28.00" length="20.80" shape="10.40,115.20 -10.40,115.20"/>
        <lane id=":J8_0_1" index="1" disallow="pedestrian" speed="28.00" length="20.80" shape="10.40,112.00 -10.40,112.00"/>
    </edge>
    <edge id=":J8_2" function="internal">
        <lane id=":J8_2_0" index="0" disallow="pedestrian" speed="9.26" length="5.01" shape="10.40,112.00 5.44,111.29"/>
    </edge>
    <edge id=":J8_9" function="internal">
        <lane id=":J8_9_0" index="0" disallow="pedestrian" speed="9.26" length="14.34" shape="5.44,111.29 5.15,111.25 1.40,109.00 -0.85,105.25 -1.60,100.00"/>
    </edge>
    <edge id=":J8_3" function="internal">
        <lane id=":J8_3_0" index="0" disallow="pedestrian" speed="6.51" length="4.75" shape="4.80,100.00 5.15,102.45 6.20,104.20 6.40,104.32"/>
        <lane id=":J8_3_1" index="1" disallow="pedestrian" speed="8.00" length="10.13" shape="1.60,100.00 2.15,103.85 3.80,106.60 6.40,108.16"/>
    </edge>
    <edge id=":J8_5" function="internal">
        <lane id=":J8_5_0" index="0" disallow="pedestrian" speed="9.26" length="15.31" shape="1.60,100.00 0.85,105.25 -1.40,109.00 -5.15,111.25 -6.40,111.43"/>
    </edge>
    <edge id=":J8_10" function="internal">
        <lane id=":J8_10_0" index="0" disallow="pedestrian" speed="6.51" length="4.28" shape="6.40,104.32 7.95,105.25 10.40,105.60"/>
    </edge>
    <edge id=":J8_11" function="internal">
        <lane id=":J8_11_0" index="0" disallow="pedestrian" speed="8.00" length="4.06" shape="6.40,108.16 6.55,108.25 10.40,108.80"/>
    </edge>
    <edge id=":J8_12" function="internal">
        <lane id=":J8_12_0" index="0" disallow="pedestrian" speed="9.26" length="4.04" shape="-6.40,111.43 -10.40,112.00"/>
    </edge>
    <edge id=":J8_6" function="internal">
        <lane id=":J8_6_0" index="0" disallow="pedestrian" speed="6.51" length="4.75" shape="-10.40,105.60 -7.95,105.25 -6.20,104.20 -6.08,104.00"/>
    </edge>
    <edge id=":J8_7" function="internal">
        <lane id=":J8_7_0" index="0" disallow="pedestrian" speed="28.00" length="20.80" shape="-10.40,105.60 10.40,105.60"/>
        <lane id=":J8_7_1" index="1" disallow="pedestrian" speed="28.00" length="20.80" shape="-10.40,108.80 10.40,108.80"/>
    </edge>
    <edge id=":J8_13" function="internal">
        <lane id=":J8_13_0" index="0" disallow="pedestrian" speed="6.51" length="4.28" shape="-6.08,104.00 -5.15,102.45 -4.80,100.00"/>
    </edge>
    <edge id=":J8_c0" function="crossing" crossingEdges="E7 -E7">
        <lane id=":J8_c0_0" index="0" allow="pedestrian" speed="1.00" length="12.80" width="4.00" shape="8.40,104.00 8.40,116.80"/>
    </edge>
    <edge id=":J8_c1" function="crossing" crossingEdges="-E6 E6">
        <lane id=":J8_c1_0" index="0" allow="pedestrian" speed="1.00" length="12.80" width="4.00" shape="-6.40,102.00 6.40,102.00"/>
    </edge>
    <edge id=":J8_c2" function="crossing" crossingEdges="E8 -E8">
        <lane id=":J8_c2_0" index="0" allow="pedestrian" speed="1.00" length="12.80" width="4.00" shape="-8.40,116.80 -8.40,104.00"/>
    </edge>
    <edge id=":J8_w0" function="walkingarea">
        <lane id=":J8_w0_0" index="0" allow="pedestrian" speed="1.00" length="13.29" width="4.00" shape="-6.40,116.80 -10.40,116.80 -10.40,118.80 10.40,118.80 10.40,116.80 6.40,116.80"/>
    </edge>
    <edge id=":J8_w1" function="walkingarea">
        <lane id=":J8_w1_0" index="0" allow="pedestrian" speed="1.00" length="3.30" width="4.00" shape="10.40,104.00 10.40,102.00 8.40,100.00 6.40,100.00 6.51,101.22 6.84,102.22 7.40,103.00 8.18,103.56 9.18,103.89"/>
    </edge>
    <edge id=":J8_w2" function="walkingarea">
        <lane id=":J8_w2_0" index="0" allow="pedestrian" speed="1.00" length="3.30" width="4.00" shape="-6.40,100.00 -8.40,100.00 -10.40,102.00 -10.40,104.00 -9.18,103.89 -8.18,103.56 -7.40,103.00 -6.84,102.22 -6.51,101.22"/>
    </edge>
    <edge id=":J9_w0" function="walkingarea">
        <lane id=":J9_w0_0" index="0" allow="pedestrian" speed="1.00" length="14.80" width="2.00" shape="110.40,116.80 110.40,118.80 110.40,102.00 110.40,104.00"/>
    </edge>

    <edge id="-E6" from="J8" to="J7" priority="-1">
        <lane id="-E6_0" index="0" allow="pedestrian" speed="28.00" length="100.00" width="2.00" shape="-7.40,100.00 -7.40,0.00"/>
        <lane id="-E6_1" index="1" disallow="pedestrian" speed="28.00" length="100.00" shape="-4.80,100.00 -4.80,0.00"/>
        <lane id="-E6_2" index="2" disallow="pedestrian" speed="28.00" length="100.00" shape="-1.60,100.00 -1.60,0.00"/>
    </edge>
    <edge id="-E7" from="J9" to="J8" priority="-1">
        <lane id="-E7_0" index="0" allow="pedestrian" speed="28.00" length="100.00" width="2.00" shape="110.40,117.80 10.40,117.80"/>
        <lane id="-E7_1" index="1" disallow="pedestrian" speed="28.00" length="100.00" shape="110.40,115.20 10.40,115.20"/>
        <lane id="-E7_2" index="2" disallow="pedestrian" speed="28.00" length="100.00" shape="110.40,112.00 10.40,112.00"/>
    </edge>
    <edge id="-E8" from="J10" to="J8" priority="-1">
        <lane id="-E8_0" index="0" allow="pedestrian" speed="28.00" length="100.00" width="2.00" shape="-110.40,103.00 -10.40,103.00"/>
        <lane id="-E8_1" index="1" disallow="pedestrian" speed="28.00" length="100.00" shape="-110.40,105.60 -10.40,105.60"/>
        <lane id="-E8_2" index="2" disallow="pedestrian" speed="28.00" length="100.00" shape="-110.40,108.80 -10.40,108.80"/>
    </edge>
    <edge id="E6" from="J7" to="J8" priority="-1">
        <lane id="E6_0" index="0" allow="pedestrian" speed="28.00" length="100.00" width="2.00" shape="7.40,0.00 7.40,100.00"/>
        <lane id="E6_1" index="1" disallow="pedestrian" speed="28.00" length="100.00" shape="4.80,0.00 4.80,100.00"/>
        <lane id="E6_2" index="2" disallow="pedestrian" speed="28.00" length="100.00" shape="1.60,0.00 1.60,100.00"/>
    </edge>
    <edge id="E7" from="J8" to="J9" priority="-1">
        <lane id="E7_0" index="0" allow="pedestrian" speed="28.00" length="100.00" width="2.00" shape="10.40,103.00 110.40,103.00"/>
        <lane id="E7_1" index="1" disallow="pedestrian" speed="28.00" length="100.00" shape="10.40,105.60 110.40,105.60"/>
        <lane id="E7_2" index="2" disallow="pedestrian" speed="28.00" length="100.00" shape="10.40,108.80 110.40,108.80"/>
    </edge>
    <edge id="E8" from="J8" to="J10" priority="-1">
        <lane id="E8_0" index="0" allow="pedestrian" speed="28.00" length="100.00" width="2.00" shape="-10.40,117.80 -110.40,117.80"/>
        <lane id="E8_1" index="1" disallow="pedestrian" speed="28.00" length="100.00" shape="-10.40,115.20 -110.40,115.20"/>
        <lane id="E8_2" index="2" disallow="pedestrian" speed="28.00" length="100.00" shape="-10.40,112.00 -110.40,112.00"/>
    </edge>

    <tlLogic id="J8" type="static" programID="0" offset="0">
        <phase duration="34" state="GGgrrrgGGrGr"/>
        <phase duration="5"  state="GGgrrrgGGrrr"/>
        <phase duration="6"  state="yyyrrryyyrrr"/>
        <phase duration="34" state="rrrgggrrrGrG"/>
        <phase duration="5"  state="rrrgggrrrrrr"/>
        <phase duration="6"  state="rrryyyrrrrrr"/>
    </tlLogic>

    <junction id="J10" type="dead_end" x="-110.40" y="110.40" incLanes="E8_0 E8_1 E8_2" intLanes="" shape="-110.40,110.40 -110.40,118.80 -110.40,110.40"/>
    <junction id="J7" type="dead_end" x="0.00" y="0.00" incLanes="-E6_0 -E6_1 -E6_2" intLanes="" shape="0.00,0.00 -8.40,0.00 0.00,0.00"/>
    <junction id="J8" type="traffic_light" x="0.00" y="110.40" incLanes="-E7_0 -E7_1 -E7_2 E6_0 E6_1 E6_2 -E8_0 -E8_1 -E8_2 :J8_w1_0 :J8_w2_0 :J8_w0_0" intLanes=":J8_0_0 :J8_0_1 :J8_9_0 :J8_10_0 :J8_11_0 :J8_12_0 :J8_13_0 :J8_7_0 :J8_7_1 :J8_c0_0 :J8_c1_0 :J8_c2_0" shape="10.40,118.80 10.40,102.00 9.29,101.78 8.90,101.50 8.62,101.11 8.46,100.61 8.40,100.00 -8.40,100.00 -8.62,101.11 -8.90,101.50 -9.29,101.78 -9.79,101.94 -10.40,102.00 -10.40,118.80">
        <request index="0"  response="101000100000" foes="101000100000" cont="0"/>
        <request index="1"  response="101000100000" foes="101000100000" cont="0"/>
        <request index="2"  response="011110100000" foes="011110100000" cont="1"/>
        <request index="3"  response="011110000000" foes="011110000000" cont="1"/>
        <request index="4"  response="011110000000" foes="011110000000" cont="1"/>
        <request index="5"  response="110110000111" foes="110110000111" cont="1"/>
        <request index="6"  response="110000000000" foes="110000000000" cont="1"/>
        <request index="7"  response="101000111000" foes="101000111100" cont="0"/>
        <request index="8"  response="101000111000" foes="101000111100" cont="0"/>
        <request index="9"  response="000000000000" foes="000110011111" cont="0"/>
        <request index="10" response="000000000000" foes="000001111100" cont="0"/>
        <request index="11" response="000000000000" foes="000111100011" cont="0"/>
    </junction>
    <junction id="J9" type="dead_end" x="110.40" y="110.40" incLanes="E7_0 E7_1 E7_2" intLanes="" shape="110.40,110.40 110.40,102.00 110.40,110.40"/>

    <junction id=":J8_9_0" type="internal" x="5.44" y="111.29" incLanes=":J8_2_0 -E8_1 -E8_2" intLanes=":J8_5_0 :J8_7_0 :J8_7_1 :J8_c0_0 :J8_c1_0"/>
    <junction id=":J8_10_0" type="internal" x="6.40" y="104.32" incLanes=":J8_3_0" intLanes=":J8_7_0 :J8_7_1 :J8_c0_0 :J8_c1_0"/>
    <junction id=":J8_11_0" type="internal" x="6.40" y="108.16" incLanes=":J8_3_1" intLanes=":J8_7_0 :J8_7_1 :J8_c0_0 :J8_c1_0"/>
    <junction id=":J8_12_0" type="internal" x="-6.40" y="111.43" incLanes=":J8_5_0" intLanes=":J8_0_0 :J8_0_1 :J8_2_0 :J8_7_0 :J8_7_1 :J8_c1_0 :J8_c2_0"/>
    <junction id=":J8_13_0" type="internal" x="-6.08" y="104.00" incLanes=":J8_6_0" intLanes=":J8_c1_0 :J8_c2_0"/>

    <connection from="-E7" to="E8" fromLane="1" toLane="1" via=":J8_0_0" tl="J8" linkIndex="0" dir="s" state="o"/>
    <connection from="-E7" to="E8" fromLane="2" toLane="2" via=":J8_0_1" tl="J8" linkIndex="1" dir="s" state="o"/>
    <connection from="-E7" to="-E6" fromLane="2" toLane="2" via=":J8_2_0" tl="J8" linkIndex="2" dir="l" state="o"/>
    <connection from="-E8" to="-E6" fromLane="1" toLane="1" via=":J8_6_0" tl="J8" linkIndex="6" dir="r" state="o"/>
    <connection from="-E8" to="E7" fromLane="1" toLane="1" via=":J8_7_0" tl="J8" linkIndex="7" dir="s" state="o"/>
    <connection from="-E8" to="E7" fromLane="2" toLane="2" via=":J8_7_1" tl="J8" linkIndex="8" dir="s" state="o"/>
    <connection from="E6" to="E7" fromLane="1" toLane="1" via=":J8_3_0" tl="J8" linkIndex="3" dir="r" state="o"/>
    <connection from="E6" to="E7" fromLane="2" toLane="2" via=":J8_3_1" tl="J8" linkIndex="4" dir="r" state="o"/>
    <connection from="E6" to="E8" fromLane="2" toLane="2" via=":J8_5_0" tl="J8" linkIndex="5" dir="l" state="o"/>

    <connection from=":J8_0" to="E8" fromLane="0" toLane="1" dir="s" state="M"/>
    <connection from=":J8_0" to="E8" fromLane="1" toLane="2" dir="s" state="M"/>
    <connection from=":J8_2" to="-E6" fromLane="0" toLane="2" via=":J8_9_0" dir="l" state="m"/>
    <connection from=":J8_9" to="-E6" fromLane="0" toLane="2" dir="l" state="m"/>
    <connection from=":J8_3" to="E7" fromLane="0" toLane="1" via=":J8_10_0" dir="r" state="m"/>
    <connection from=":J8_10" to="E7" fromLane="0" toLane="1" dir="r" state="m"/>
    <connection from=":J8_3" to="E7" fromLane="1" toLane="2" via=":J8_11_0" dir="r" state="m"/>
    <connection from=":J8_11" to="E7" fromLane="0" toLane="2" dir="r" state="m"/>
    <connection from=":J8_5" to="E8" fromLane="0" toLane="2" via=":J8_12_0" dir="l" state="m"/>
    <connection from=":J8_12" to="E8" fromLane="0" toLane="2" dir="l" state="m"/>
    <connection from=":J8_6" to="-E6" fromLane="0" toLane="1" via=":J8_13_0" dir="r" state="m"/>
    <connection from=":J8_13" to="-E6" fromLane="0" toLane="1" dir="r" state="m"/>
    <connection from=":J8_7" to="E7" fromLane="0" toLane="1" dir="s" state="M"/>
    <connection from=":J8_7" to="E7" fromLane="1" toLane="2" dir="s" state="M"/>

    <connection from=":J10_w0" to="-E8" fromLane="0" toLane="0" dir="s" state="M"/>
    <connection from="E8" to=":J10_w0" fromLane="0" toLane="0" dir="s" state="M"/>
    <connection from=":J7_w0" to="E6" fromLane="0" toLane="0" dir="s" state="M"/>
    <connection from="-E6" to=":J7_w0" fromLane="0" toLane="0" dir="s" state="M"/>
    <connection from=":J8_c0" to=":J8_w0" fromLane="0" toLane="0" dir="s" state="M"/>
    <connection from=":J8_c1" to=":J8_w1" fromLane="0" toLane="0" dir="s" state="M"/>
    <connection from=":J8_c2" to=":J8_w2" fromLane="0" toLane="0" dir="s" state="M"/>
    <connection from=":J8_w0" to=":J8_c2" fromLane="0" toLane="0" tl="J8" linkIndex="11" dir="s" state="M"/>
    <connection from=":J8_w0" to="E8" fromLane="0" toLane="0" dir="s" state="M"/>
    <connection from="-E7" to=":J8_w0" fromLane="0" toLane="0" dir="s" state="M"/>
    <connection from=":J8_w1" to=":J8_c0" fromLane="0" toLane="0" tl="J8" linkIndex="9" dir="s" state="M"/>
    <connection from=":J8_w1" to="E7" fromLane="0" toLane="0" dir="s" state="M"/>
    <connection from="E6" to=":J8_w1" fromLane="0" toLane="0" dir="s" state="M"/>
    <connection from=":J8_w2" to=":J8_c1" fromLane="0" toLane="0" tl="J8" linkIndex="10" dir="s" state="M"/>
    <connection from=":J8_w2" to="-E6" fromLane="0" toLane="0" dir="s" state="M"/>
    <connection from="-E8" to=":J8_w2" fromLane="0" toLane="0" dir="s" state="M"/>
    <connection from=":J9_w0" to="-E7" fromLane="0" toLane="0" dir="s" state="M"/>
    <connection from="E7" to=":J9_w0" fromLane="0" toLane="0" dir="s" state="M"/>
</net>
