<?xml version="1.0" encoding="UTF-8"?>

<!-- generated on 2023-04-13 04:47:27 by Eclipse SUMO netedit Version 1.15.0
<configuration xmlns:xsi="http://www.w3.org/2001/XMLSchema-instance" xsi:noNamespaceSchemaLocation="http://sumo.dlr.de/xsd/netconvertConfiguration.xsd">

    <input>
        <sumo-net-file value="C:\Users\ilkek\Desktop\scenic-sumo-gui3\scenic-sumo-gui\map\allnetworksedit.net.xml"/>
    </input>

    <output>
        <output-file value="C:\Users\ilkek\Desktop\scenic-sumo-gui3\scenic-sumo-gui\map\allnetworksedit.net.xml"/>
    </output>

    <processing>
        <geometry.min-radius.fix.railways value="false"/>
        <geometry.max-grade.fix value="false"/>
        <offset.disable-normalization value="true"/>
        <lefthand value="0"/>
    </processing>

    <junctions>
        <no-internal-links value="false"/>
        <no-turnarounds value="true"/>
        <junctions.corner-detail value="5"/>
        <junctions.limit-turn-speed value="5.50"/>
        <rectangular-lane-cut value="0"/>
    </junctions>

    <pedestrian>
        <walkingareas value="0"/>
    </pedestrian>

</configuration>
-->

<net version="1.9" junctionCornerDetail="5" limitTurnSpeed="5.50" xmlns:xsi="http://www.w3.org/2001/XMLSchema-instance" xsi:noNamespaceSchemaLocation="http://sumo.dlr.de/xsd/net_file.xsd">

    <location netOffset="0.00,0.00" convBoundary="-167.86,-1172.91,508.04,193.57" origBoundary="-10000000000.00,-10000000000.00,10000000000.00,10000000000.00" projParameter="!"/>

    <edge id=":J0_w0" function="walkingarea">
        <lane id=":J0_w0_0" index="0" allow="pedestrian" speed="1.00" length="16.00" width="3.20" shape="-167.85,186.95 -167.84,183.75 -167.88,202.95 -167.87,199.75"/>
    </edge>
    <edge id=":J10_w0" function="walkingarea">
        <lane id=":J10_w0_0" index="0" allow="pedestrian" speed="1.00" length="16.00" width="3.20" shape="-70.64,-400.20 -70.64,-403.40 -70.64,-384.20 -70.64,-387.40"/>
    </edge>
    <edge id=":J15_0" function="internal">
        <lane id=":J15_0_0" index="0" disallow="pedestrian" speed="6.86" length="10.16" shape="118.73,-382.79 118.34,-385.54 117.15,-387.51 115.18,-388.69 112.43,-389.08"/>
        <lane id=":J15_0_1" index="1" disallow="pedestrian" speed="8.29" length="15.33" shape="121.93,-382.79 121.34,-386.94 119.55,-389.91 116.58,-391.69 112.43,-392.28"/>
    </edge>
    <edge id=":J15_2" function="internal">
        <lane id=":J15_2_0" index="0" disallow="pedestrian" speed="13.89" length="22.20" shape="121.93,-382.79 121.93,-404.99"/>
    </edge>
    <edge id=":J15_3" function="internal">
        <lane id=":J15_3_0" index="0" disallow="pedestrian" speed="9.51" length="5.02" shape="121.93,-382.79 122.64,-387.75"/>
    </edge>
    <edge id=":J15_16" function="internal">
        <lane id=":J15_16_0" index="0" disallow="pedestrian" speed="9.51" length="15.47" shape="122.64,-387.75 122.72,-388.34 125.11,-392.31 129.07,-394.70 134.63,-395.49"/>
    </edge>
    <edge id=":J15_4" function="internal">
        <lane id=":J15_4_0" index="0" disallow="pedestrian" speed="6.86" length="10.16" shape="134.63,-389.09 131.87,-388.70 129.91,-387.51 128.72,-385.54 128.33,-382.79"/>
        <lane id=":J15_4_1" index="1" disallow="pedestrian" speed="8.29" length="15.32" shape="134.63,-392.29 130.47,-391.70 127.51,-389.91 125.72,-386.94 125.13,-382.79"/>
    </edge>
    <edge id=":J15_6" function="internal">
        <lane id=":J15_6_0" index="0" disallow="pedestrian" speed="13.89" length="22.20" shape="134.63,-392.29 112.43,-392.28"/>
    </edge>
    <edge id=":J15_7" function="internal">
        <lane id=":J15_7_0" index="0" disallow="pedestrian" speed="9.51" length="20.48" shape="134.63,-392.29 129.07,-393.08 125.11,-395.46 122.72,-399.43 121.93,-404.99"/>
    </edge>
    <edge id=":J15_8" function="internal">
        <lane id=":J15_8_0" index="0" disallow="pedestrian" speed="6.86" length="5.93" shape="128.33,-404.99 128.72,-402.23 129.91,-400.26 130.63,-399.83"/>
        <lane id=":J15_8_1" index="1" disallow="pedestrian" speed="8.29" length="11.28" shape="125.13,-404.99 125.72,-400.83 127.50,-397.87 130.47,-396.08 130.63,-396.06"/>
    </edge>
    <edge id=":J15_10" function="internal">
        <lane id=":J15_10_0" index="0" disallow="pedestrian" speed="13.89" length="22.20" shape="125.13,-404.99 125.13,-382.79"/>
    </edge>
    <edge id=":J15_11" function="internal">
        <lane id=":J15_11_0" index="0" disallow="pedestrian" speed="9.51" length="5.01" shape="125.13,-404.99 124.42,-400.03"/>
    </edge>
    <edge id=":J15_17" function="internal">
        <lane id=":J15_17_0" index="0" disallow="pedestrian" speed="6.86" length="4.23" shape="130.63,-399.83 131.87,-399.08 134.63,-398.69"/>
    </edge>
    <edge id=":J15_18" function="internal">
        <lane id=":J15_18_0" index="0" disallow="pedestrian" speed="8.29" length="4.04" shape="130.63,-396.06 134.63,-395.49"/>
    </edge>
    <edge id=":J15_19" function="internal">
        <lane id=":J15_19_0" index="0" disallow="pedestrian" speed="9.51" length="15.47" shape="124.42,-400.03 124.34,-399.43 121.95,-395.46 117.98,-393.08 112.43,-392.28"/>
    </edge>
    <edge id=":J15_12" function="internal">
        <lane id=":J15_12_0" index="0" disallow="pedestrian" speed="6.87" length="10.17" shape="112.42,-398.68 115.18,-399.08 117.15,-400.26 118.34,-402.23 118.73,-404.99"/>
        <lane id=":J15_12_1" index="1" disallow="pedestrian" speed="8.30" length="15.33" shape="112.42,-395.48 116.58,-396.08 119.55,-397.86 121.34,-400.83 121.93,-404.99"/>
    </edge>
    <edge id=":J15_14" function="internal">
        <lane id=":J15_14_0" index="0" disallow="pedestrian" speed="13.89" length="22.21" shape="112.42,-395.48 134.63,-395.49"/>
    </edge>
    <edge id=":J15_15" function="internal">
        <lane id=":J15_15_0" index="0" disallow="pedestrian" speed="9.51" length="20.49" shape="112.42,-395.48 117.98,-394.69 121.95,-392.31 124.34,-388.34 125.13,-382.79"/>
    </edge>
    <edge id=":J15_c0" function="crossing" crossingEdges="E12 -E12">
        <lane id=":J15_c0_0" index="0" allow="pedestrian" speed="1.00" length="12.80" width="4.00" shape="132.63,-400.29 132.63,-387.49"/>
    </edge>
    <edge id=":J15_w0" function="walkingarea">
        <lane id=":J15_w0_0" index="0" allow="pedestrian" speed="1.00" length="4.38" width="3.20" shape="112.43,-387.48 112.43,-384.28 113.93,-382.79 117.13,-382.79 117.00,-384.22 116.61,-385.40 115.95,-386.31 115.04,-386.96 113.87,-387.35"/>
    </edge>
    <edge id=":J15_w1" function="walkingarea">
        <lane id=":J15_w1_0" index="0" allow="pedestrian" speed="1.00" length="3.93" width="4.00" shape="129.93,-382.79 133.13,-382.79 134.63,-384.29 134.63,-387.49 133.19,-387.36 132.02,-386.97 131.11,-386.31 130.45,-385.40 130.06,-384.22"/>
    </edge>
    <edge id=":J15_w2" function="walkingarea">
        <lane id=":J15_w2_0" index="0" allow="pedestrian" speed="1.00" length="3.92" width="4.00" shape="134.63,-400.29 134.63,-403.49 133.13,-404.99 129.93,-404.99 130.06,-403.55 130.45,-402.38 131.11,-401.47 132.02,-400.81 133.19,-400.42"/>
    </edge>
    <edge id=":J15_w3" function="walkingarea">
        <lane id=":J15_w3_0" index="0" allow="pedestrian" speed="1.00" length="4.39" width="3.20" shape="117.13,-404.99 113.93,-404.99 112.42,-403.48 112.42,-400.28 113.86,-400.42 115.04,-400.81 115.95,-401.46 116.61,-402.38 117.00,-403.55"/>
    </edge>
    <edge id=":J16_w0" function="walkingarea">
        <lane id=":J16_w0_0" index="0" allow="pedestrian" speed="1.00" length="16.00" width="3.20" shape="336.65,-387.49 336.65,-384.29 336.65,-403.49 336.65,-400.29"/>
    </edge>
    <edge id=":J17_w0" function="walkingarea">
        <lane id=":J17_w0_0" index="0" allow="pedestrian" speed="1.00" length="16.00" width="3.20" shape="117.13,-233.40 113.93,-233.40 133.13,-233.40 129.93,-233.40"/>
    </edge>
    <edge id=":J18_w0" function="walkingarea">
        <lane id=":J18_w0_0" index="0" allow="pedestrian" speed="1.00" length="16.00" width="3.20" shape="129.93,-577.13 133.13,-577.13 113.93,-577.13 117.13,-577.13"/>
    </edge>
    <edge id=":J19_0" function="internal">
        <lane id=":J19_0_0" index="0" disallow="pedestrian" speed="10.64" length="25.85" shape="115.02,-938.86 113.53,-941.64 109.09,-943.62 101.70,-944.79 91.36,-945.15"/>
    </edge>
    <edge id=":J19_1" function="internal">
        <lane id=":J19_1_0" index="0" disallow="pedestrian" speed="13.89" length="33.21" shape="115.02,-938.86 113.73,-943.78 109.91,-949.65 103.55,-956.46 94.67,-964.23"/>
    </edge>
    <edge id=":J19_2" function="internal">
        <lane id=":J19_2_0" index="0" disallow="pedestrian" speed="13.89" length="33.04" shape="115.02,-938.86 114.76,-971.90"/>
        <lane id=":J19_2_1" index="1" disallow="pedestrian" speed="13.89" length="33.04" shape="118.22,-938.88 117.96,-971.92"/>
    </edge>
    <edge id=":J19_4" function="internal">
        <lane id=":J19_4_0" index="0" disallow="pedestrian" speed="9.51" length="16.52" shape="118.22,-938.88 118.99,-944.47 121.36,-948.46 125.34,-950.85 126.92,-951.08"/>
    </edge>
    <edge id=":J19_25" function="internal">
        <lane id=":J19_25_0" index="0" disallow="pedestrian" speed="9.51" length="4.04" shape="126.92,-951.08 130.92,-951.65"/>
    </edge>
    <edge id=":J19_5" function="internal">
        <lane id=":J19_5_0" index="0" disallow="pedestrian" speed="6.86" length="10.19" shape="130.92,-945.25 128.15,-944.85 126.18,-943.67 125.00,-941.69 124.62,-938.92"/>
    </edge>
    <edge id=":J19_6" function="internal">
        <lane id=":J19_6_0" index="0" disallow="pedestrian" speed="13.89" length="39.57" shape="130.92,-945.25 91.36,-945.15"/>
        <lane id=":J19_6_1" index="1" disallow="pedestrian" speed="13.89" length="39.57" shape="130.92,-948.45 91.34,-948.35"/>
    </edge>
    <edge id=":J19_8" function="internal">
        <lane id=":J19_8_0" index="0" disallow="pedestrian" speed="13.89" length="39.74" shape="130.92,-948.45 120.88,-949.97 112.54,-954.04 104.84,-959.87 96.68,-966.71"/>
    </edge>
    <edge id=":J19_9" function="internal">
        <lane id=":J19_9_0" index="0" disallow="pedestrian" speed="11.42" length="5.60" shape="130.92,-948.45 125.50,-949.87"/>
    </edge>
    <edge id=":J19_26" function="internal">
        <lane id=":J19_26_0" index="0" disallow="pedestrian" speed="11.42" length="24.19" shape="125.50,-949.87 125.33,-949.91 121.31,-954.32 118.85,-961.65 117.96,-971.92"/>
    </edge>
    <edge id=":J19_10" function="internal">
        <lane id=":J19_10_0" index="0" disallow="pedestrian" speed="9.40" length="14.59" shape="124.36,-971.98 124.83,-964.49 126.08,-959.13 126.92,-957.80"/>
    </edge>
    <edge id=":J19_11" function="internal">
        <lane id=":J19_11_0" index="0" disallow="pedestrian" speed="13.89" length="33.07" shape="124.36,-971.98 124.62,-938.92"/>
    </edge>
    <edge id=":J19_12" function="internal">
        <lane id=":J19_12_0" index="0" disallow="pedestrian" speed="13.89" length="48.39" shape="124.36,-971.98 122.39,-960.29 116.23,-951.92 105.89,-946.87 91.36,-945.15"/>
        <lane id=":J19_12_1" index="1" disallow="pedestrian" speed="13.61" length="43.23" shape="121.16,-971.95 119.38,-961.67 113.81,-954.30 104.47,-949.87 91.34,-948.35"/>
    </edge>
    <edge id=":J19_14" function="internal">
        <lane id=":J19_14_0" index="0" disallow="pedestrian" speed="9.70" length="32.63" shape="121.16,-971.95 118.91,-964.04 113.02,-960.83 105.08,-961.88 96.68,-966.71"/>
    </edge>
    <edge id=":J19_27" function="internal">
        <lane id=":J19_27_0" index="0" disallow="pedestrian" speed="9.40" length="5.23" shape="126.92,-957.80 128.11,-955.92 130.92,-954.85"/>
    </edge>
    <edge id=":J19_15" function="internal">
        <lane id=":J19_15_0" index="0" disallow="pedestrian" speed="7.64" length="19.65" shape="100.71,-971.68 106.90,-967.39 111.30,-966.00 113.92,-967.50 114.76,-971.90"/>
    </edge>
    <edge id=":J19_16" function="internal">
        <lane id=":J19_16_0" index="0" disallow="pedestrian" speed="13.89" length="36.64" shape="100.71,-971.68 108.24,-965.07 114.56,-959.72 121.51,-956.15 130.92,-954.85"/>
        <lane id=":J19_16_1" index="1" disallow="pedestrian" speed="13.89" length="36.64" shape="98.70,-969.20 106.54,-962.47 113.55,-956.88 121.20,-953.06 130.92,-951.65"/>
    </edge>
    <edge id=":J19_18" function="internal">
        <lane id=":J19_18_0" index="0" disallow="pedestrian" speed="13.89" length="14.31" shape="98.70,-969.20 108.61,-960.41 109.32,-959.62"/>
    </edge>
    <edge id=":J19_19" function="internal">
        <lane id=":J19_19_0" index="0" disallow="pedestrian" speed="8.86" length="2.86" shape="98.70,-969.20 100.35,-966.86"/>
    </edge>
    <edge id=":J19_28" function="internal">
        <lane id=":J19_28_0" index="0" disallow="pedestrian" speed="13.89" length="24.49" shape="109.32,-959.62 115.71,-952.43 119.98,-945.26 121.42,-938.90"/>
    </edge>
    <edge id=":J19_29" function="internal">
        <lane id=":J19_29_0" index="0" disallow="pedestrian" speed="8.86" length="26.68" shape="100.35,-966.86 103.30,-962.68 103.20,-955.89 99.02,-950.54 91.34,-948.35"/>
    </edge>
    <edge id=":J19_20" function="internal">
        <lane id=":J19_20_0" index="0" disallow="pedestrian" speed="7.01" length="17.84" shape="91.32,-954.75 97.14,-955.36 99.64,-957.15 98.81,-960.10 94.67,-964.23"/>
    </edge>
    <edge id=":J19_21" function="internal">
        <lane id=":J19_21_0" index="0" disallow="pedestrian" speed="11.92" length="32.90" shape="91.32,-954.75 101.63,-955.85 108.98,-959.08 113.35,-964.43 114.76,-971.90"/>
    </edge>
    <edge id=":J19_22" function="internal">
        <lane id=":J19_22_0" index="0" disallow="pedestrian" speed="13.89" length="39.59" shape="91.32,-954.75 130.92,-954.85"/>
        <lane id=":J19_22_1" index="1" disallow="pedestrian" speed="13.89" length="39.59" shape="91.33,-951.55 130.92,-951.65"/>
    </edge>
    <edge id=":J19_24" function="internal">
        <lane id=":J19_24_0" index="0" disallow="pedestrian" speed="12.43" length="35.64" shape="91.33,-951.55 104.47,-950.80 113.86,-948.44 119.52,-944.47 121.42,-938.90"/>
    </edge>
    <edge id=":J19_c0" function="crossing" crossingEdges="E15 -E15">
        <lane id=":J19_c0_0" index="0" allow="pedestrian" speed="1.00" length="12.80" width="4.00" shape="128.92,-956.45 128.92,-943.65"/>
    </edge>
    <edge id=":J19_w0" function="walkingarea">
        <lane id=":J19_w0_0" index="0" allow="pedestrian" speed="1.00" length="20.69" width="3.20" shape="91.36,-943.55 91.37,-940.35 110.22,-938.83 113.42,-938.85 112.80,-940.31 110.96,-941.50 107.90,-942.41 103.61,-943.06 98.10,-943.44"/>
    </edge>
    <edge id=":J19_w1" function="walkingarea">
        <lane id=":J19_w1_0" index="0" allow="pedestrian" speed="1.00" length="3.93" width="4.00" shape="126.22,-938.93 129.42,-938.95 130.92,-940.45 130.92,-943.65 129.48,-943.52 128.30,-943.12 127.38,-942.47 126.73,-941.55 126.35,-940.37"/>
    </edge>
    <edge id=":J19_w2" function="walkingarea">
        <lane id=":J19_w2_0" index="0" allow="pedestrian" speed="1.00" length="10.85" width="4.00" shape="130.92,-956.45 130.92,-959.65 129.16,-972.03 125.96,-972.00 126.14,-967.25 126.57,-963.36 127.27,-960.33 128.23,-958.17 129.45,-956.88"/>
    </edge>
    <edge id=":J19_w3" function="walkingarea">
        <lane id=":J19_w3_0" index="0" allow="pedestrian" speed="1.00" length="9.13" width="3.20" shape="113.16,-971.88 109.96,-971.85 103.74,-975.41 101.72,-972.93 105.24,-970.30 108.11,-968.66 110.34,-967.99 111.92,-968.31 112.86,-969.61"/>
    </edge>
    <edge id=":J19_w4" function="walkingarea">
        <lane id=":J19_w4_0" index="0" allow="pedestrian" speed="1.00" length="4.02" width="3.20" shape="93.66,-962.99 91.64,-960.50 91.31,-959.55 91.32,-956.35 92.43,-956.74 93.37,-957.75 94.05,-959.12 94.38,-960.61 94.28,-961.98"/>
    </edge>
    <edge id=":J2_0" function="internal">
        <lane id=":J2_0_0" index="0" disallow="pedestrian" speed="13.89" length="0.31" shape="-61.62,198.37 -61.93,198.37"/>
        <lane id=":J2_0_1" index="1" disallow="pedestrian" speed="13.89" length="0.31" shape="-61.62,195.17 -61.92,195.17"/>
    </edge>
    <edge id=":J2_2" function="internal">
        <lane id=":J2_2_0" index="0" disallow="pedestrian" speed="13.89" length="0.29" shape="-61.91,188.77 -61.62,188.77"/>
        <lane id=":J2_2_1" index="1" disallow="pedestrian" speed="13.89" length="0.29" shape="-61.92,191.97 -61.62,191.97"/>
    </edge>
    <edge id=":J2_w0" function="walkingarea">
        <lane id=":J2_w0_0" index="0" allow="pedestrian" speed="1.00" length="0.32" width="3.20" shape="-61.93,199.97 -61.94,203.17 -61.62,203.17 -61.62,199.97"/>
    </edge>
    <edge id=":J2_w1" function="walkingarea">
        <lane id=":J2_w1_0" index="0" allow="pedestrian" speed="1.00" length="0.28" width="3.20" shape="-61.62,187.17 -61.62,183.97 -61.90,183.97 -61.91,187.17"/>
    </edge>
    <edge id=":J20_w0" function="walkingarea">
        <lane id=":J20_w0_0" index="0" allow="pedestrian" speed="1.00" length="16.00" width="3.20" shape="508.04,-943.50 508.04,-940.30 508.04,-959.50 508.04,-956.30"/>
    </edge>
    <edge id=":J21_w0" function="walkingarea">
        <lane id=":J21_w0_0" index="0" allow="pedestrian" speed="1.00" length="16.00" width="3.20" shape="-135.32,-955.56 -135.33,-958.76 -135.27,-939.56 -135.28,-942.76"/>
    </edge>
    <edge id=":J22_w0" function="walkingarea">
        <lane id=":J22_w0_0" index="0" allow="pedestrian" speed="1.00" length="16.00" width="3.20" shape="114.49,-755.47 111.29,-755.45 130.49,-755.57 127.29,-755.55"/>
    </edge>
    <edge id=":J23_w0" function="walkingarea">
        <lane id=":J23_w0_0" index="0" allow="pedestrian" speed="1.00" length="16.00" width="3.20" shape="124.12,-1172.97 127.32,-1173.00 108.12,-1172.82 111.32,-1172.85"/>
    </edge>
    <edge id=":J24_w0" function="walkingarea">
        <lane id=":J24_w0_0" index="0" allow="pedestrian" speed="1.00" length="16.00" width="3.20" shape="-105.79,-1141.28 -103.77,-1143.77 -115.87,-1128.85 -113.85,-1131.34"/>
    </edge>
    <edge id=":J3_0" function="internal">
        <lane id=":J3_0_0" index="0" disallow="pedestrian" speed="13.89" length="4.02" shape="133.64,198.36 129.61,198.37"/>
        <lane id=":J3_0_1" index="1" disallow="pedestrian" speed="13.89" length="4.02" shape="133.62,195.16 129.61,195.17"/>
    </edge>
    <edge id=":J3_2" function="internal">
        <lane id=":J3_2_0" index="0" disallow="pedestrian" speed="13.89" length="3.98" shape="129.61,188.77 133.58,188.76"/>
        <lane id=":J3_2_1" index="1" disallow="pedestrian" speed="13.89" length="3.98" shape="129.61,191.97 133.60,191.96"/>
    </edge>
    <edge id=":J3_c0" function="crossing" crossingEdges="E3 -E3">
        <lane id=":J3_c0_0" index="0" allow="pedestrian" speed="1.00" length="12.80" width="4.00" shape="131.57,187.17 131.65,199.97"/>
    </edge>
    <edge id=":J3_w0" function="walkingarea">
        <lane id=":J3_w0_0" index="0" allow="pedestrian" speed="1.00" length="3.07" width="4.00" shape="129.61,199.97 129.61,203.17 133.67,203.16 133.65,199.96 129.65,199.98"/>
    </edge>
    <edge id=":J3_w1" function="walkingarea">
        <lane id=":J3_w1_0" index="0" allow="pedestrian" speed="1.00" length="3.01" width="4.00" shape="129.57,187.18 133.57,187.16 133.55,183.96 129.61,183.97 129.61,187.17"/>
    </edge>
    <edge id=":J4_w0" function="walkingarea">
        <lane id=":J4_w0_0" index="0" allow="pedestrian" speed="1.00" length="16.00" width="3.20" shape="334.00,198.65 334.02,201.85 333.90,182.65 333.92,185.85"/>
    </edge>
    <edge id=":J6_w0" function="walkingarea">
        <lane id=":J6_w0_0" index="0" allow="pedestrian" speed="1.00" length="16.00" width="3.20" shape="-68.35,1.96 -68.35,-1.24 -68.39,17.96 -68.39,14.76"/>
    </edge>
    <edge id=":J7_0" function="internal">
        <lane id=":J7_0_0" index="0" disallow="pedestrian" speed="13.89" length="22.23" shape="142.78,13.63 120.55,13.60"/>
        <lane id=":J7_0_1" index="1" disallow="pedestrian" speed="13.89" length="22.23" shape="142.78,10.43 120.56,10.40"/>
    </edge>
    <edge id=":J7_2" function="internal">
        <lane id=":J7_2_0" index="0" disallow="pedestrian" speed="9.51" length="5.05" shape="142.78,10.43 137.78,9.72"/>
    </edge>
    <edge id=":J7_8" function="internal">
        <lane id=":J7_8_0" index="0" disallow="pedestrian" speed="9.51" length="15.44" shape="137.78,9.72 137.22,9.64 133.25,7.25 130.87,3.28 130.08,-2.28"/>
    </edge>
    <edge id=":J7_3" function="internal">
        <lane id=":J7_3_0" index="0" disallow="pedestrian" speed="6.86" length="10.17" shape="136.48,-2.28 136.87,0.48 138.05,2.45 140.02,3.64 142.78,4.03"/>
    </edge>
    <edge id=":J7_4" function="internal">
        <lane id=":J7_4_0" index="0" disallow="pedestrian" speed="9.51" length="20.50" shape="133.28,-2.28 132.48,3.28 130.09,7.25 126.12,9.62 120.56,10.40"/>
    </edge>
    <edge id=":J7_5" function="internal">
        <lane id=":J7_5_0" index="0" disallow="pedestrian" speed="6.86" length="10.17" shape="120.57,4.00 123.33,3.62 125.30,2.44 126.49,0.47 126.88,-2.29"/>
    </edge>
    <edge id=":J7_6" function="internal">
        <lane id=":J7_6_0" index="0" disallow="pedestrian" speed="13.89" length="22.22" shape="120.57,4.00 142.78,4.03"/>
        <lane id=":J7_6_1" index="1" disallow="pedestrian" speed="13.89" length="22.22" shape="120.56,7.20 142.78,7.23"/>
    </edge>
    <edge id=":J7_w0" function="walkingarea">
        <lane id=":J7_w0_0" index="0" allow="pedestrian" speed="1.00" length="22.24" width="3.20" shape="120.54,15.20 120.54,18.40 142.78,18.43 142.78,15.23"/>
    </edge>
    <edge id=":J7_w1" function="walkingarea">
        <lane id=":J7_w1_0" index="0" allow="pedestrian" speed="1.00" length="4.38" width="3.20" shape="142.78,2.43 142.78,-0.77 141.28,-2.27 138.08,-2.27 138.21,-0.84 138.60,0.34 139.26,1.25 140.17,1.91 141.34,2.30"/>
    </edge>
    <edge id=":J7_w2" function="walkingarea">
        <lane id=":J7_w2_0" index="0" allow="pedestrian" speed="1.00" length="4.39" width="3.20" shape="125.28,-2.29 122.08,-2.29 120.58,-0.80 120.57,2.40 122.01,2.28 123.19,1.89 124.10,1.24 124.76,0.32 125.15,-0.85"/>
    </edge>
    <edge id=":J8_w0" function="walkingarea">
        <lane id=":J8_w0_0" index="0" allow="pedestrian" speed="1.00" length="16.00" width="3.20" shape="322.84,15.23 322.84,18.43 322.84,-0.77 322.84,2.43"/>
    </edge>
    <edge id=":J9_w0" function="walkingarea">
        <lane id=":J9_w0_0" index="0" allow="pedestrian" speed="1.00" length="16.00" width="3.20" shape="138.27,-151.15 141.47,-151.15 122.27,-151.17 125.47,-151.17"/>
    </edge>

    <edge id="-E0" from="J0" to="J2" priority="-1">
        <lane id="-E0_0" index="0" allow="pedestrian" speed="13.89" length="105.94" shape="-167.84,185.35 -61.90,185.57"/>
        <lane id="-E0_1" index="1" disallow="pedestrian" speed="13.89" length="105.94" shape="-167.85,188.55 -61.91,188.77"/>
        <lane id="-E0_2" index="2" disallow="pedestrian" speed="13.89" length="105.94" shape="-167.86,191.75 -61.92,191.97"/>
    </edge>
    <edge id="-E11" from="J15" to="J10" priority="-1">
        <lane id="-E11_0" index="0" allow="pedestrian" speed="13.89" length="183.07" shape="112.43,-385.88 -70.64,-385.80"/>
        <lane id="-E11_1" index="1" disallow="pedestrian" speed="13.89" length="183.07" shape="112.43,-389.08 -70.64,-389.00"/>
        <lane id="-E11_2" index="2" disallow="pedestrian" speed="13.89" length="183.07" shape="112.43,-392.28 -70.64,-392.20"/>
    </edge>
    <edge id="-E12" from="J16" to="J15" priority="-1">
        <lane id="-E12_0" index="0" allow="pedestrian" speed="13.89" length="202.02" shape="336.65,-385.89 134.63,-385.89"/>
        <lane id="-E12_1" index="1" disallow="pedestrian" speed="13.89" length="202.02" shape="336.65,-389.09 134.63,-389.09"/>
        <lane id="-E12_2" index="2" disallow="pedestrian" speed="13.89" length="202.02" shape="336.65,-392.29 134.63,-392.29"/>
    </edge>
    <edge id="-E13" from="J17" to="J15" priority="-1">
        <lane id="-E13_0" index="0" allow="pedestrian" speed="13.89" length="149.39" shape="115.53,-233.40 115.53,-382.79"/>
        <lane id="-E13_1" index="1" disallow="pedestrian" speed="13.89" length="149.39" shape="118.73,-233.40 118.73,-382.79"/>
        <lane id="-E13_2" index="2" disallow="pedestrian" speed="13.89" length="149.39" shape="121.93,-233.40 121.93,-382.79"/>
    </edge>
    <edge id="-E14" from="J18" to="J15" priority="-1">
        <lane id="-E14_0" index="0" allow="pedestrian" speed="13.89" length="172.14" shape="131.53,-577.13 131.53,-404.99"/>
        <lane id="-E14_1" index="1" disallow="pedestrian" speed="13.89" length="172.14" shape="128.33,-577.13 128.33,-404.99"/>
        <lane id="-E14_2" index="2" disallow="pedestrian" speed="13.89" length="172.14" shape="125.13,-577.13 125.13,-404.99"/>
    </edge>
    <edge id="-E15" from="J20" to="J19" priority="-1">
        <lane id="-E15_0" index="0" allow="pedestrian" speed="13.89" length="377.12" shape="508.04,-941.90 130.92,-942.05"/>
        <lane id="-E15_1" index="1" disallow="pedestrian" speed="13.89" length="377.12" shape="508.04,-945.10 130.92,-945.25"/>
        <lane id="-E15_2" index="2" disallow="pedestrian" speed="13.89" length="377.12" shape="508.04,-948.30 130.92,-948.45"/>
    </edge>
    <edge id="-E16" from="J21" to="J19" priority="-1">
        <lane id="-E16_0" index="0" allow="pedestrian" speed="13.89" length="226.64" shape="-135.33,-957.16 91.31,-957.95"/>
        <lane id="-E16_1" index="1" disallow="pedestrian" speed="13.89" length="226.64" shape="-135.32,-953.96 91.32,-954.75"/>
        <lane id="-E16_2" index="2" disallow="pedestrian" speed="13.89" length="226.64" shape="-135.31,-950.76 91.33,-951.55"/>
    </edge>
    <edge id="-E17" from="J22" to="J19" priority="-1">
        <lane id="-E17_0" index="0" allow="pedestrian" speed="13.89" length="183.38" shape="112.89,-755.46 111.82,-938.84"/>
        <lane id="-E17_1" index="1" disallow="pedestrian" speed="13.89" length="183.38" shape="116.09,-755.48 115.02,-938.86"/>
        <lane id="-E17_2" index="2" disallow="pedestrian" speed="13.89" length="183.38" shape="119.29,-755.50 118.22,-938.88"/>
    </edge>
    <edge id="-E18" from="J23" to="J19" priority="-1">
        <lane id="-E18_0" index="0" allow="pedestrian" speed="13.89" length="200.98" shape="125.72,-1172.98 127.56,-972.01"/>
        <lane id="-E18_1" index="1" disallow="pedestrian" speed="13.89" length="200.98" shape="122.52,-1172.95 124.36,-971.98"/>
        <lane id="-E18_2" index="2" disallow="pedestrian" speed="13.89" length="200.98" shape="119.32,-1172.92 121.16,-971.95"/>
    </edge>
    <edge id="-E19" from="J24" to="J19" priority="-1">
        <lane id="-E19_0" index="0" allow="pedestrian" speed="13.89" length="267.21" shape="-104.78,-1142.52 102.73,-974.17"/>
        <lane id="-E19_1" index="1" disallow="pedestrian" speed="13.89" length="267.21" shape="-106.80,-1140.04 100.71,-971.68"/>
        <lane id="-E19_2" index="2" disallow="pedestrian" speed="13.89" length="267.21" shape="-108.81,-1137.55 98.70,-969.20"/>
    </edge>
    <edge id="-E2" from="J3" to="J2" priority="-1">
        <lane id="-E2_0" index="0" allow="pedestrian" speed="13.89" length="191.23" shape="129.61,201.57 -61.62,201.57"/>
        <lane id="-E2_1" index="1" disallow="pedestrian" speed="13.89" length="191.23" shape="129.61,198.37 -61.62,198.37"/>
        <lane id="-E2_2" index="2" disallow="pedestrian" speed="13.89" length="191.23" shape="129.61,195.17 -61.62,195.17"/>
    </edge>
    <edge id="-E3" from="J4" to="J3" priority="-1">
        <lane id="-E3_0" index="0" allow="pedestrian" speed="13.89" length="200.36" shape="334.01,200.25 133.66,201.56"/>
        <lane id="-E3_1" index="1" disallow="pedestrian" speed="13.89" length="200.36" shape="333.99,197.05 133.64,198.36"/>
        <lane id="-E3_2" index="2" disallow="pedestrian" speed="13.89" length="200.36" shape="333.97,193.85 133.62,195.16"/>
    </edge>
    <edge id="-E4" from="J7" to="J6" priority="-1">
        <lane id="-E4_0" index="0" allow="pedestrian" speed="13.89" length="188.93" shape="120.54,16.80 -68.39,16.36"/>
        <lane id="-E4_1" index="1" disallow="pedestrian" speed="13.89" length="188.93" shape="120.55,13.60 -68.38,13.16"/>
        <lane id="-E4_2" index="2" disallow="pedestrian" speed="13.89" length="188.93" shape="120.56,10.40 -68.37,9.96"/>
    </edge>
    <edge id="-E5" from="J8" to="J7" priority="-1">
        <lane id="-E5_0" index="0" allow="pedestrian" speed="13.89" length="180.06" shape="322.84,16.83 142.78,16.83"/>
        <lane id="-E5_1" index="1" disallow="pedestrian" speed="13.89" length="180.06" shape="322.84,13.63 142.78,13.63"/>
        <lane id="-E5_2" index="2" disallow="pedestrian" speed="13.89" length="180.06" shape="322.84,10.43 142.78,10.43"/>
    </edge>
    <edge id="-E6" from="J9" to="J7" priority="-1">
        <lane id="-E6_0" index="0" allow="pedestrian" speed="13.89" length="148.88" shape="139.87,-151.15 139.68,-2.27"/>
        <lane id="-E6_1" index="1" disallow="pedestrian" speed="13.89" length="148.88" shape="136.67,-151.15 136.48,-2.28"/>
        <lane id="-E6_2" index="2" disallow="pedestrian" speed="13.89" length="148.88" shape="133.47,-151.16 133.28,-2.28"/>
    </edge>
    <edge id="E0" from="J2" to="J0" priority="-1">
        <lane id="E0_0" index="0" allow="pedestrian" speed="13.89" length="105.94" shape="-61.94,201.57 -167.88,201.35"/>
        <lane id="E0_1" index="1" disallow="pedestrian" speed="13.89" length="105.94" shape="-61.93,198.37 -167.87,198.15"/>