<?xml version="1.0" encoding="UTF-8"?>

<!-- generated on 2023-03-16 17:46:16 by Eclipse SUMO netedit Version 1.15.0
<configuration xmlns:xsi="http://www.w3.org/2001/XMLSchema-instance" xsi:noNamespaceSchemaLocation="http://sumo.dlr.de/xsd/netconvertConfiguration.xsd">

    <input>
        <sumo-net-file value="C:\Users\ilkek\Desktop\scenic-sumo-min\map\pedcrossmiddleofhighway.net.xml"/>
    </input>

    <output>
        <output-file value="C:\Users\ilkek\Desktop\scenic-sumo-min\map\pedcrossmiddleofhighway.net.xml"/>
    </output>

    <processing>
        <geometry.min-radius.fix.railways value="false"/>
        <geometry.max-grade.fix value="false"/>
        <offset.disable-normalization value="true"/>
        <lefthand value="0"/>
    </processing>

    <junctions>
        <no-internal-links value="false"/>
        <no-turnarounds value="true"/>
        <junctions.corner-detail value="5"/>
        <junctions.limit-turn-speed value="5.50"/>
        <rectangular-lane-cut value="0"/>
    </junctions>

    <pedestrian>
        <walkingareas value="0"/>
    </pedestrian>

</configuration>
-->

<net version="1.9" junctionCornerDetail="5" limitTurnSpeed="5.50" xmlns:xsi="http://www.w3.org/2001/XMLSchema-instance" xsi:noNamespaceSchemaLocation="http://sumo.dlr.de/xsd/net_file.xsd">

    <location netOffset="0.00,0.00" convBoundary="-61.77,192.25,333.96,193.57" origBoundary="-10000000000.00,-10000000000.00,10000000000.00,10000000000.00" projParameter="!"/>

    <edge id=":J2_w0" function="walkingarea">
        <lane id=":J2_w0_0" index="0" allow="pedestrian" speed="1.00" length="16.00" width="3.20" shape="-61.77,187.17 -61.77,183.97 -61.77,203.17 -61.77,199.97"/>
    </edge>
    <edge id=":J3_0" function="internal">
        <lane id=":J3_0_0" index="0" disallow="pedestrian" speed="13.89" length="4.02" shape="133.64,198.36 129.61,198.37"/>
        <lane id=":J3_0_1" index="1" disallow="pedestrian" speed="13.89" length="4.02" shape="133.62,195.16 129.61,195.17"/>
    </edge>
    <edge id=":J3_2" function="internal">
        <lane id=":J3_2_0" index="0" disallow="pedestrian" speed="13.89" length="3.98" shape="129.61,188.77 133.58,188.76"/>
        <lane id=":J3_2_1" index="1" disallow="pedestrian" speed="13.89" length="3.98" shape="129.61,191.97 133.60,191.96"/>
    </edge>
    <edge id=":J3_c0" function="crossing" crossingEdges="E3 -E3">
        <lane id=":J3_c0_0" index="0" allow="pedestrian" speed="1.00" length="12.80" width="4.00" shape="131.57,187.17 131.65,199.97"/>
    </edge>
    <edge id=":J3_w0" function="walkingarea">
        <lane id=":J3_w0_0" index="0" allow="pedestrian" speed="1.00" length="3.07" width="4.00" shape="129.61,199.97 129.61,203.17 133.67,203.16 133.65,199.96 129.65,199.98"/>
    </edge>
    <edge id=":J3_w1" function="walkingarea">
        <lane id=":J3_w1_0" index="0" allow="pedestrian" speed="1.00" length="3.01" width="4.00" shape="129.57,187.18 133.57,187.16 133.55,183.96 129.61,183.97 129.61,187.17"/>
    </edge>
    <edge id=":J4_w0" function="walkingarea">
        <lane id=":J4_w0_0" index="0" allow="pedestrian" speed="1.00" length="16.00" width="3.20" shape="334.00,198.65 334.02,201.85 333.90,182.65 333.92,185.85"/>
    </edge>

    <edge id="-E2" from="J3" to="J2" priority="-1">
        <lane id="-E2_0" index="0" allow="pedestrian" speed="13.89" length="191.38" shape="129.61,201.57 -61.77,201.57"/>
        <lane id="-E2_1" index="1" disallow="pedestrian" speed="13.89" length="191.38" shape="129.61,198.37 -61.77,198.37"/>
        <lane id="-E2_2" index="2" disallow="pedestrian" speed="13.89" length="191.38" shape="129.61,195.17 -61.77,195.17"/>
    </edge>
    <edge id="-E3" from="J4" to="J3" priority="-1">
        <lane id="-E3_0" index="0" allow="pedestrian" speed="13.89" length="200.36" shape="334.01,200.25 133.66,201.56"/>
        <lane id="-E3_1" index="1" disallow="pedestrian" speed="13.89" length="200.36" shape="333.99,197.05 133.64,198.36"/>
        <lane id="-E3_2" index="2" disallow="pedestrian" speed="13.89" length="200.36" shape="333.97,193.85 133.62,195.16"/>
    </edge>
    <edge id="E2" from="J2" to="J3" priority="-1">
        <lane id="E2_0" index="0" allow="pedestrian" speed="13.89" length="191.38" shape="-61.77,185.57 129.61,185.57"/>
        <lane id="E2_1" index="1" disallow="pedestrian" speed="13.89" length="191.38" shape="-61.77,188.77 129.61,188.77"/>
        <lane id="E2_2" index="2" disallow="pedestrian" speed="13.89" length="191.38" shape="-61.77,191.97 129.61,191.97"/>
    </edge>
    <edge id="E3" from="J3" to="J4" priority="-1">
        <lane id="E3_0" index="0" allow="pedestrian" speed="13.89" length="200.36" shape="133.56,185.56 333.91,184.25"/>
        <lane id="E3_1" index="1" disallow="pedestrian" speed="13.89" length="200.36" shape="133.58,188.76 333.93,187.45"/>
        <lane id="E3_2" index="2" disallow="pedestrian" speed="13.89" length="200.36" shape="133.60,191.96 333.95,190.65"/>
    </edge>

    <junction id="J2" type="dead_end" x="-61.77" y="193.57" incLanes="-E2_0 -E2_1 -E2_2" intLanes="" shape="-61.77,193.57 -61.77,203.17 -61.77,193.57"/>
    <junction id="J3" type="priority" x="131.61" y="193.57" incLanes="-E3_0 -E3_1 -E3_2 E2_0 E2_1 E2_2 :J3_w1_0" intLanes=":J3_0_0 :J3_0_1 :J3_2_0 :J3_2_1 :J3_c0_0" shape="133.67,203.16 133.55,183.96 129.61,183.97 129.61,203.17">
        <request index="0" response="00000" foes="10000" cont="0"/>
        <request index="1" response="00000" foes="10000" cont="0"/>
        <request index="2" response="00000" foes="10000" cont="0"/>
        <request index="3" response="00000" foes="10000" cont="0"/>
        <request index="4" response="01111" foes="01111" cont="0"/>
    </junction>
    <junction id="J4" type="dead_end" x="333.96" y="192.25" incLanes="E3_0 E3_1 E3_2" intLanes="" shape="333.96,192.25 333.90,182.65 333.96,192.25"/>

    <connection from="-E3" to="-E2" fromLane="1" toLane="1" via=":J3_0_0" dir="s" state="M"/>
    <connection from="-E3" to="-E2" fromLane="2" toLane="2" via=":J3_0_1" dir="s" state="M"/>
    <connection from="E2" to="E3" fromLane="1" toLane="1" via=":J3_2_0" dir="s" state="M"/>
    <connection from="E2" to="E3" fromLane="2" toLane="2" via=":J3_2_1" dir="s" state="M"/>

    <connection from=":J3_0" to="-E2" fromLane="0" toLane="1" dir="s" state="M"/>
    <connection from=":J3_0" to="-E2" fromLane="1" toLane="2" dir="s" state="M"/>
    <connection from=":J3_2" to="E3" fromLane="0" toLane="1" dir="s" state="M"/>
    <connection from=":J3_2" to="E3" fromLane="1" toLane="2" dir="s" state="M"/>

    <connection from=":J2_w0" to="E2" fromLane="0" toLane="0" dir="s" state="M"/>
    <connection from="-E2" to=":J2_w0" fromLane="0" toLane="0" dir="s" state="M"/>
    <connection from=":J3_c0" to=":J3_w0" fromLane="0" toLane="0" dir="s" state="M"/>
    <connection from=":J3_w0" to="-E2" fromLane="0" toLane="0" dir="s" state="M"/>
    <connection from="-E3" to=":J3_w0" fromLane="0" toLane="0" dir="s" state="M"/>
    <connection from=":J3_w1" to=":J3_c0" fromLane="0" toLane="0" dir="s" state="m"/>
    <connection from=":J3_w1" to="E3" fromLane="0" toLane="0" dir="s" state="M"/>
    <connection from="E2" to=":J3_w1" fromLane="0" toLane="0" dir="s" state="M"/>
    <connection from=":J4_w0" to="-E3" fromLane="0" toLane="0" dir="s" state="M"/>
    <connection from="E3" to=":J4_w0" fromLane="0" toLane="0" dir="s" state="M"/>
</net>
